Version 4
SHEET 1 960 852
WIRE 592 384 -112 384
WIRE 80 464 32 464
WIRE 208 464 144 464
WIRE 336 496 288 496
WIRE 512 496 416 496
WIRE -336 528 -336 496
WIRE -112 592 -112 384
WIRE 32 592 32 464
WIRE 32 592 -32 592
WIRE 368 592 352 592
WIRE 512 608 512 496
WIRE 512 608 432 608
WIRE 592 608 592 384
WIRE 592 608 512 608
WIRE 32 624 32 592
WIRE 96 624 32 624
WIRE 208 624 208 464
WIRE 288 624 288 496
WIRE 368 624 288 624
WIRE 208 640 208 624
WIRE 208 640 160 640
WIRE -336 656 -336 608
WIRE 96 656 48 656
WIRE -336 720 -336 656
FLAG -528 736 0
FLAG -528 656 V+
FLAG -336 800 0
FLAG -336 496 V+
FLAG 128 608 V+
FLAG 400 576 V+
FLAG 400 640 0
FLAG 128 672 0
FLAG -336 656 offset
FLAG 48 656 offset
FLAG 352 592 offset
SYMBOL cap 144 448 R90
WINDOW 0 0 32 VBottom 2
WINDOW 3 32 32 VTop 2
SYMATTR InstName C1
SYMATTR Value 341p
SYMBOL res 304 608 R90
WINDOW 0 0 56 VBottom 2
WINDOW 3 32 56 VTop 2
SYMATTR InstName R2
SYMATTR Value 3k
SYMBOL res 432 480 R90
WINDOW 0 0 56 VBottom 2
WINDOW 3 32 56 VTop 2
SYMATTR InstName R3
SYMATTR Value 6k
SYMBOL res -16 576 R90
WINDOW 0 0 56 VBottom 2
WINDOW 3 32 56 VTop 2
SYMATTR InstName R1
SYMATTR Value 10k
SYMBOL voltage -528 640 R0
WINDOW 123 0 0 Left 0
WINDOW 39 0 0 Left 0
SYMATTR InstName V3
SYMATTR Value 5
SYMBOL OpAmps\\opamp2 128 576 R0
SYMATTR InstName U1
SYMATTR Value TLC081
SYMBOL OpAmps\\opamp2 400 544 R0
SYMATTR InstName U2
SYMATTR Value TLC081
SYMBOL res -352 512 R0
SYMATTR InstName R11
SYMATTR Value 1k
SYMBOL res -352 704 R0
SYMATTR InstName R12
SYMATTR Value 1k
TEXT 344 232 Left 2 !.include LM324.lib
TEXT 336 272 Left 2 !.tran 0 0.1m 0
TEXT 336 328 Left 2 !.include TLC081.mod
