Version 4
SHEET 1 880 680
SYMBOL OpAmps\\opamp2 160 128 R0
SYMATTR InstName U1
