Version 4
SHEET 1 1700 724
WIRE 1520 144 1440 144
WIRE 1680 144 1584 144
WIRE -560 176 -688 176
WIRE -256 192 -304 192
WIRE 464 192 -256 192
WIRE 1440 208 1440 144
WIRE 1520 208 1440 208
WIRE 1680 208 1680 144
WIRE 1680 208 1600 208
WIRE 256 304 192 304
WIRE 400 304 336 304
WIRE -64 320 -112 320
WIRE 64 320 0 320
WIRE 1232 336 1088 336
WIRE 1328 336 1232 336
WIRE 1440 336 1440 208
WIRE 1440 336 1328 336
WIRE 1472 336 1440 336
WIRE 1232 352 1232 336
WIRE 1680 352 1680 208
WIRE 1680 352 1536 352
WIRE 1472 368 1440 368
WIRE 1232 416 1088 416
WIRE 1328 416 1232 416
WIRE -256 480 -256 192
WIRE -224 480 -256 480
WIRE -112 480 -112 320
WIRE -112 480 -144 480
WIRE -32 480 -112 480
WIRE 64 496 64 320
WIRE 64 496 32 496
WIRE 96 496 64 496
WIRE 192 496 192 304
WIRE 192 496 176 496
WIRE 256 496 192 496
WIRE -32 512 -80 512
WIRE 400 512 400 304
WIRE 400 512 320 512
WIRE 464 512 464 192
WIRE 464 512 400 512
WIRE -80 528 -80 512
WIRE 256 528 192 528
WIRE 192 560 192 528
FLAG 288 480 V+
FLAG 0 464 V+
FLAG -848 144 V+
FLAG -848 224 0
FLAG 288 544 0
FLAG 0 528 0
FLAG -688 176 vcc/2
FLAG -560 96 V+
FLAG -560 256 0
FLAG -80 528 vcc/2
FLAG 192 560 vcc/2
FLAG 1440 368 V+
FLAG 1504 384 0
FLAG 1504 320 V+
FLAG 464 112 V+
SYMBOL res 352 288 R90
WINDOW 0 0 56 VBottom 2
WINDOW 3 32 56 VTop 2
SYMATTR InstName R3
SYMATTR Value 1.6k
SYMBOL res 192 480 R90
WINDOW 0 0 56 VBottom 2
WINDOW 3 32 56 VTop 2
SYMATTR InstName R2
SYMATTR Value 1k
SYMBOL res -128 464 R90
WINDOW 0 0 56 VBottom 2
WINDOW 3 32 56 VTop 2
SYMATTR InstName R1
SYMATTR Value 384k
SYMBOL OpAmps\\UniversalOpAmp2 0 496 R0
SYMATTR InstName U3
SYMBOL cap 0 304 R90
WINDOW 0 0 32 VBottom 2
WINDOW 3 32 32 VTop 2
SYMATTR InstName C1
SYMATTR Value 65p
SYMBOL voltage -848 128 R0
WINDOW 123 0 0 Left 0
WINDOW 39 0 0 Left 0
SYMATTR InstName V1
SYMATTR Value 3.5
SYMBOL res -576 80 R0
SYMATTR InstName R6
SYMATTR Value 2k
SYMBOL res -576 160 R0
SYMATTR InstName R7
SYMATTR Value 2k
SYMBOL OpAmps\\UniversalOpAmp2 288 512 M180
SYMATTR InstName U1
SYMBOL cap 1584 128 R90
WINDOW 0 0 32 VBottom 2
WINDOW 3 32 32 VTop 2
SYMATTR InstName C2
SYMATTR Value 1p
SYMBOL cap 1248 416 R180
WINDOW 0 24 56 Left 2
WINDOW 3 24 8 Left 2
SYMATTR InstName C3
SYMATTR Value 1p
SYMBOL res 1312 320 R0
SYMATTR InstName R4
SYMATTR Value 1K
SYMBOL res 1616 192 R90
WINDOW 0 0 56 VBottom 2
WINDOW 3 32 56 VTop 2
SYMATTR InstName R5
SYMATTR Value 1k
SYMBOL current 1088 336 R0
WINDOW 123 0 0 Left 0
WINDOW 39 0 0 Left 0
SYMATTR InstName I1
SYMATTR Value 2A
SYMBOL OpAmps\\UniversalOpAmp2 1504 352 M180
SYMATTR InstName U2
SYMBOL res 448 96 R0
SYMATTR InstName R8
SYMATTR Value 100k
TEXT -528 584 Left 2 !.tran 10m
